Version 4.1
SHEET 1 880 1012
WIRE -352 -368 -352 -432
WIRE -352 -240 -352 -288
WIRE -352 -240 -432 -240
WIRE -272 -240 -352 -240
WIRE -112 -240 -192 -240
WIRE -560 -224 -688 -224
WIRE -512 -224 -560 -224
WIRE -688 -208 -688 -224
WIRE -272 -208 -432 -208
WIRE -560 -192 -608 -192
WIRE -512 -192 -560 -192
WIRE -352 -176 -432 -176
WIRE -608 -160 -608 -192
WIRE -512 -160 -544 -160
WIRE -144 -144 -432 -144
WIRE -112 -144 -112 -240
WIRE -112 -144 -144 -144
WIRE -16 -144 -112 -144
WIRE 224 -144 160 -144
WIRE 352 -144 288 -144
WIRE 160 -96 160 -144
WIRE 352 -96 352 -144
WIRE -352 -64 -352 -96
WIRE -272 -64 -272 -128
WIRE -688 -48 -688 -128
WIRE -608 -48 -608 -80
WIRE -544 -48 -544 -160
WIRE -16 0 -16 -144
WIRE -16 0 -896 0
WIRE 160 32 160 -16
WIRE 352 32 352 -16
WIRE -896 160 -896 0
WIRE -864 160 -896 160
WIRE -800 160 -864 160
WIRE -688 160 -720 160
WIRE -656 160 -656 64
WIRE -656 160 -688 160
WIRE -576 160 -576 64
WIRE -576 160 -592 160
WIRE -544 160 -576 160
WIRE -496 160 -496 64
WIRE -496 160 -544 160
WIRE -416 160 -416 64
WIRE -416 160 -432 160
WIRE -384 160 -416 160
WIRE -336 160 -336 64
WIRE -336 160 -384 160
WIRE -256 160 -256 64
WIRE -256 160 -272 160
WIRE -224 160 -256 160
WIRE -128 160 -224 160
WIRE -64 160 -128 160
WIRE -688 208 -688 160
WIRE -544 208 -544 160
WIRE -384 208 -384 160
WIRE -224 208 -224 160
WIRE -128 208 -128 160
WIRE -688 320 -688 272
WIRE -544 320 -544 272
WIRE -384 320 -384 272
WIRE -224 320 -224 272
WIRE -128 320 -128 288
WIRE -368 400 -432 400
WIRE -192 480 -208 480
WIRE -96 480 -112 480
WIRE -64 480 -96 480
WIRE 32 480 16 480
WIRE -432 496 -432 480
WIRE -208 496 -208 480
WIRE -368 528 -368 400
WIRE -48 576 -48 560
WIRE -464 592 -560 592
WIRE -96 592 -96 480
WIRE -64 592 -96 592
WIRE 32 608 32 480
WIRE 32 608 0 608
WIRE 64 608 32 608
WIRE 192 608 144 608
WIRE -64 624 -272 624
WIRE -464 656 -560 656
WIRE -48 656 -48 640
WIRE -16 656 -16 640
WIRE -464 720 -576 720
WIRE -576 768 -576 720
WIRE -576 864 -576 848
WIRE -304 864 -304 832
WIRE -496 896 -496 864
WIRE -112 896 -112 880
WIRE 0 896 0 880
WIRE 128 896 128 880
WIRE -432 976 -432 832
WIRE -432 976 -496 976
WIRE -112 992 -112 976
WIRE 0 992 0 976
WIRE 128 992 128 976
FLAG -352 -64 0
FLAG -272 -64 0
FLAG -688 -48 0
FLAG -608 -48 0
FLAG -544 -48 0
FLAG -352 -432 0
FLAG -560 -224 IN+
FLAG -560 -192 IN-
FLAG -144 -144 OUT
FLAG -688 320 0
FLAG -544 320 0
FLAG -384 320 0
FLAG -224 320 0
FLAG -128 320 0
FLAG -64 160 SIN_OUT
FLAG -864 160 Vin
FLAG 160 32 0
FLAG 352 32 0
FLAG 160 -144 PULSE_IN
FLAG 352 -144 PULSE_OUT
FLAG -432 496 0
FLAG -496 864 0
FLAG -304 864 0
FLAG -112 880 +V
FLAG -112 992 0
FLAG -48 560 +V
FLAG 0 880 -V
FLAG 0 992 0
FLAG -208 496 0
FLAG -48 656 -V
FLAG 128 880 _SD
FLAG 128 992 0
FLAG 192 608 BNC_OUT
FLAG -16 656 +V
FLAG -560 592 SIN_OUT
FLAG -560 656 PULSE_OUT
FLAG -576 864 0
SYMBOL voltage -688 -224 R0
WINDOW 123 -293 76 Left 2
WINDOW 39 0 0 Left 0
WINDOW 3 -293 48 Left 2
SYMATTR Value2 AC 1
SYMATTR Value SINE(0.3 0.3 10Meg)
SYMATTR InstName V1
SYMBOL voltage -608 -176 R0
WINDOW 123 -384 85 Left 2
WINDOW 39 0 0 Left 0
WINDOW 3 -384 57 Left 2
SYMATTR Value2 AC 1 180
SYMATTR Value SINE(0.3 0.3 10Meg 0 0 180)
SYMATTR InstName V2
SYMBOL AD8130 -480 -192 R0
SYMATTR InstName U1
SYMBOL voltage -272 -224 R0
WINDOW 0 25 26 Left 2
WINDOW 123 0 0 Left 0
WINDOW 39 0 0 Left 0
SYMATTR InstName V3
SYMATTR Value 5
SYMBOL voltage -352 -192 R0
WINDOW 123 0 0 Left 0
WINDOW 39 0 0 Left 0
SYMATTR InstName V4
SYMATTR Value -5
SYMBOL res -176 -256 R90
WINDOW 0 4 111 VBottom 2
WINDOW 3 -26 -3 VTop 2
SYMATTR InstName R1
SYMATTR Value 4.53k
SYMBOL res -336 -272 R180
WINDOW 0 36 76 Left 2
WINDOW 3 36 40 Left 2
SYMATTR InstName R2
SYMATTR Value 1k
SYMBOL res -704 144 R90
WINDOW 0 0 56 VBottom 2
WINDOW 3 32 56 VTop 2
SYMATTR InstName R3
SYMATTR Value 50
SYMBOL res -112 304 R180
WINDOW 0 36 76 Left 2
WINDOW 3 36 40 Left 2
SYMATTR InstName R4
SYMATTR Value 50
SYMBOL cap -704 272 M180
WINDOW 0 24 56 Left 2
WINDOW 3 24 8 Left 2
SYMATTR InstName C1
SYMATTR Value 180p
SYMBOL cap -592 176 M270
WINDOW 0 32 32 VTop 2
WINDOW 3 0 32 VBottom 2
SYMATTR InstName C2
SYMATTR Value 150p
SYMBOL cap -528 208 M0
SYMATTR InstName C3
SYMATTR Value 300p
SYMBOL cap -496 144 M90
WINDOW 0 0 32 VBottom 2
WINDOW 3 32 32 VTop 2
SYMATTR InstName C4
SYMATTR Value 100p
SYMBOL cap -400 272 M180
WINDOW 0 24 56 Left 2
WINDOW 3 24 8 Left 2
SYMATTR InstName C5
SYMATTR Value 330p
SYMBOL cap -272 176 M270
WINDOW 0 32 32 VTop 2
WINDOW 3 0 32 VBottom 2
SYMATTR InstName C6
SYMATTR Value 33p
SYMBOL cap -208 208 M0
SYMATTR InstName C7
SYMATTR Value 270p
SYMBOL ind -560 48 R90
WINDOW 0 5 56 VBottom 2
WINDOW 3 32 56 VTop 2
SYMATTR InstName L1
SYMATTR Value 270n
SYMATTR SpiceLine Rser=1m
SYMBOL ind -400 48 R90
WINDOW 0 5 56 VBottom 2
WINDOW 3 32 56 VTop 2
SYMATTR InstName L2
SYMATTR Value 390n
SYMATTR SpiceLine Rser=1m
SYMBOL ind -240 48 R90
WINDOW 0 5 56 VBottom 2
WINDOW 3 32 56 VTop 2
SYMATTR InstName L3
SYMATTR Value 470n
SYMATTR SpiceLine Rser=1m
SYMBOL voltage 160 -112 R0
WINDOW 3 -89 229 Left 2
WINDOW 123 0 0 Left 0
WINDOW 39 0 0 Left 0
SYMATTR Value PULSE(0 3.3 0 1n 1n 49n 100n)
SYMATTR InstName V5
SYMBOL cap 288 -160 R90
WINDOW 0 0 32 VBottom 2
WINDOW 3 32 32 VTop 2
SYMATTR InstName C8
SYMATTR Value 0.1”
SYMBOL res 336 -112 R0
SYMATTR InstName R5
SYMATTR Value 10k
SYMBOL Switches\\ADG619 -368 672 R0
SYMATTR InstName U2
SYMBOL voltage -432 384 R0
WINDOW 123 0 0 Left 0
WINDOW 39 0 0 Left 0
SYMATTR InstName V6
SYMATTR Value 5
SYMBOL voltage -496 880 R0
WINDOW 123 0 0 Left 0
WINDOW 39 0 0 Left 0
SYMATTR InstName V7
SYMATTR Value 5
SYMBOL voltage -112 880 R0
WINDOW 123 0 0 Left 0
WINDOW 39 0 0 Left 0
SYMATTR InstName V9
SYMATTR Value 20
SYMBOL res -96 464 R90
WINDOW 0 0 56 VBottom 2
WINDOW 3 32 56 VTop 2
SYMATTR InstName R6
SYMATTR Value 100
SYMBOL res 32 464 R90
WINDOW 0 0 56 VBottom 2
WINDOW 3 32 56 VTop 2
SYMATTR InstName R7
SYMATTR Value 1k
SYMBOL voltage 0 880 R0
SYMATTR InstName V10
SYMATTR Value -20
SYMBOL ADA4870 -32 608 R0
WINDOW 3 -145 35 Left 2
SYMATTR InstName U3
SYMBOL voltage 128 880 R0
WINDOW 123 0 0 Left 0
WINDOW 39 0 0 Left 0
SYMATTR InstName V11
SYMATTR Value -15
SYMBOL res 160 592 R90
WINDOW 0 0 56 VBottom 2
WINDOW 3 32 56 VTop 2
SYMATTR InstName R8
SYMATTR Value 50
SYMBOL voltage -576 752 M0
WINDOW 3 17 96 Left 2
WINDOW 123 0 0 Left 0
WINDOW 39 0 0 Left 0
SYMATTR Value PULSE(0 3 0 1n 1n 2u 4u)
SYMATTR InstName V8
TEXT -800 976 Left 2 !.tran 5u
