Version 4.1
SHEET 1 1140 680
WIRE 192 -112 128 -112
WIRE 368 -32 352 -32
WIRE 464 -32 448 -32
WIRE 496 -32 464 -32
WIRE 592 -32 576 -32
WIRE 128 -16 128 -32
WIRE 352 -16 352 -32
WIRE 192 16 192 -112
WIRE 512 64 512 48
WIRE 96 80 -32 80
WIRE 464 80 464 -32
WIRE 496 80 464 80
WIRE 592 96 592 -32
WIRE 592 96 560 96
WIRE 624 96 592 96
WIRE 752 96 704 96
WIRE 496 112 288 112
WIRE 96 144 48 144
WIRE 512 144 512 128
WIRE 544 144 544 128
WIRE -32 176 -32 160
WIRE 48 208 48 144
WIRE 96 208 48 208
WIRE 48 240 48 208
WIRE 256 352 256 320
WIRE 64 384 64 352
WIRE 448 384 448 368
WIRE 560 384 560 368
WIRE 688 384 688 368
WIRE 128 464 128 320
WIRE 128 464 64 464
WIRE 448 480 448 464
WIRE 560 480 560 464
WIRE 688 480 688 464
FLAG 128 -16 0
FLAG 64 352 0
FLAG 256 352 0
FLAG -32 176 0
FLAG 48 240 0
FLAG 448 368 +V
FLAG 448 480 0
FLAG 512 48 +V
FLAG 560 368 -V
FLAG 560 480 0
FLAG 352 -16 0
FLAG 512 144 -V
FLAG 688 368 _SD
FLAG 688 480 0
FLAG 752 96 BNC_OUT
FLAG 544 144 +V
SYMBOL Switches\\ADG619 192 160 R0
SYMATTR InstName U1
SYMBOL voltage 128 -128 R0
WINDOW 123 0 0 Left 0
WINDOW 39 0 0 Left 0
SYMATTR InstName V1
SYMATTR Value 5
SYMBOL voltage 64 368 R0
WINDOW 123 0 0 Left 0
WINDOW 39 0 0 Left 0
SYMATTR InstName V2
SYMATTR Value 5
SYMBOL voltage -32 64 R0
WINDOW 3 -256 91 Left 2
WINDOW 123 0 0 Left 0
WINDOW 39 0 0 Left 0
SYMATTR InstName V3
SYMATTR Value SINE(0 1.65 10Meg)
SYMBOL voltage 448 368 R0
WINDOW 123 0 0 Left 0
WINDOW 39 0 0 Left 0
SYMATTR InstName V4
SYMATTR Value 20
SYMBOL res 464 -48 R90
WINDOW 0 0 56 VBottom 2
WINDOW 3 32 56 VTop 2
SYMATTR InstName R1
SYMATTR Value 100
SYMBOL res 592 -48 R90
WINDOW 0 0 56 VBottom 2
WINDOW 3 32 56 VTop 2
SYMATTR InstName R2
SYMATTR Value 1k
SYMBOL voltage 560 368 R0
SYMATTR InstName V6
SYMATTR Value -20
SYMBOL ADA4870 528 96 R0
WINDOW 3 -145 35 Left 2
SYMATTR InstName U2
SYMBOL voltage 688 368 R0
WINDOW 123 0 0 Left 0
WINDOW 39 0 0 Left 0
SYMATTR InstName V7
SYMATTR Value -15
SYMBOL res 720 80 R90
WINDOW 0 0 56 VBottom 2
WINDOW 3 32 56 VTop 2
SYMATTR InstName R3
SYMATTR Value 50
TEXT -112 280 Left 2 !.tran 2u
