Version 4.1
SHEET 1 1656 920
WIRE 864 96 864 32
WIRE 864 224 864 176
WIRE 864 224 784 224
WIRE 944 224 864 224
WIRE 1104 224 1024 224
WIRE 656 240 528 240
WIRE 704 240 656 240
WIRE 528 256 528 240
WIRE 944 256 784 256
WIRE 656 272 608 272
WIRE 704 272 656 272
WIRE 864 288 784 288
WIRE 608 304 608 272
WIRE 704 304 672 304
WIRE 1072 320 784 320
WIRE 1104 320 1104 224
WIRE 1104 320 1072 320
WIRE 1200 320 1104 320
WIRE 864 400 864 368
WIRE 944 400 944 336
WIRE 528 416 528 336
WIRE 608 416 608 384
WIRE 672 416 672 304
WIRE 1200 464 1200 320
WIRE 1200 464 320 464
WIRE 320 624 320 464
WIRE 352 624 320 624
WIRE 416 624 352 624
WIRE 528 624 496 624
WIRE 560 624 560 528
WIRE 560 624 528 624
WIRE 640 624 640 528
WIRE 640 624 624 624
WIRE 672 624 640 624
WIRE 720 624 720 528
WIRE 720 624 672 624
WIRE 800 624 800 528
WIRE 800 624 784 624
WIRE 832 624 800 624
WIRE 880 624 880 528
WIRE 880 624 832 624
WIRE 960 624 960 528
WIRE 960 624 944 624
WIRE 992 624 960 624
WIRE 1088 624 992 624
WIRE 1152 624 1088 624
WIRE 528 672 528 624
WIRE 672 672 672 624
WIRE 832 672 832 624
WIRE 992 672 992 624
WIRE 1088 672 1088 624
WIRE 528 784 528 736
WIRE 672 784 672 736
WIRE 832 784 832 736
WIRE 992 784 992 736
WIRE 1088 784 1088 752
FLAG 864 400 0
FLAG 944 400 0
FLAG 528 416 0
FLAG 608 416 0
FLAG 672 416 0
FLAG 864 32 0
FLAG 656 240 IN+
FLAG 656 272 IN-
FLAG 1072 320 OUT
FLAG 528 784 0
FLAG 672 784 0
FLAG 832 784 0
FLAG 992 784 0
FLAG 1088 784 0
FLAG 1152 624 Vout
FLAG 352 624 Vin
SYMBOL voltage 528 240 R0
WINDOW 123 -293 76 Left 2
WINDOW 39 0 0 Left 0
WINDOW 3 -293 48 Left 2
SYMATTR Value2 AC 1
SYMATTR Value SINE(0.3 0.3 10Meg)
SYMATTR InstName V1
SYMBOL voltage 608 288 R0
WINDOW 123 -384 85 Left 2
WINDOW 39 0 0 Left 0
WINDOW 3 -384 57 Left 2
SYMATTR Value2 AC 1 180
SYMATTR Value SINE(0.3 0.3 10Meg 0 0 180)
SYMATTR InstName V2
SYMBOL AD8130 736 272 R0
SYMATTR InstName U1
SYMBOL voltage 944 240 R0
WINDOW 0 25 26 Left 2
WINDOW 123 0 0 Left 0
WINDOW 39 0 0 Left 0
SYMATTR InstName V3
SYMATTR Value 5
SYMBOL voltage 864 272 R0
WINDOW 123 0 0 Left 0
WINDOW 39 0 0 Left 0
SYMATTR InstName V4
SYMATTR Value -5
SYMBOL res 1040 208 R90
WINDOW 0 4 111 VBottom 2
WINDOW 3 -26 -3 VTop 2
SYMATTR InstName R1
SYMATTR Value 4.53k
SYMBOL res 880 192 R180
WINDOW 0 36 76 Left 2
WINDOW 3 36 40 Left 2
SYMATTR InstName R2
SYMATTR Value 1k
SYMBOL res 512 608 R90
WINDOW 0 0 56 VBottom 2
WINDOW 3 32 56 VTop 2
SYMATTR InstName R3
SYMATTR Value 50
SYMBOL res 1104 768 R180
WINDOW 0 36 76 Left 2
WINDOW 3 36 40 Left 2
SYMATTR InstName R4
SYMATTR Value 50
SYMBOL cap 512 736 M180
WINDOW 0 24 56 Left 2
WINDOW 3 24 8 Left 2
SYMATTR InstName C1
SYMATTR Value 180p
SYMBOL cap 624 640 M270
WINDOW 0 32 32 VTop 2
WINDOW 3 0 32 VBottom 2
SYMATTR InstName C2
SYMATTR Value 150p
SYMBOL cap 688 672 M0
SYMATTR InstName C3
SYMATTR Value 300p
SYMBOL cap 720 608 M90
WINDOW 0 0 32 VBottom 2
WINDOW 3 32 32 VTop 2
SYMATTR InstName C4
SYMATTR Value 100p
SYMBOL cap 816 736 M180
WINDOW 0 24 56 Left 2
WINDOW 3 24 8 Left 2
SYMATTR InstName C5
SYMATTR Value 330p
SYMBOL cap 944 640 M270
WINDOW 0 32 32 VTop 2
WINDOW 3 0 32 VBottom 2
SYMATTR InstName C6
SYMATTR Value 33p
SYMBOL cap 1008 672 M0
SYMATTR InstName C7
SYMATTR Value 270p
SYMBOL ind 656 512 R90
WINDOW 0 5 56 VBottom 2
WINDOW 3 32 56 VTop 2
SYMATTR InstName L1
SYMATTR Value 270n
SYMATTR SpiceLine Rser=1m
SYMBOL ind 816 512 R90
WINDOW 0 5 56 VBottom 2
WINDOW 3 32 56 VTop 2
SYMATTR InstName L2
SYMATTR Value 390n
SYMATTR SpiceLine Rser=1m
SYMBOL ind 976 512 R90
WINDOW 0 5 56 VBottom 2
WINDOW 3 32 56 VTop 2
SYMATTR InstName L3
SYMATTR Value 470n
SYMATTR SpiceLine Rser=1m
TEXT 216 440 Left 2 ;.tran 1u
TEXT 320 896 Left 2 !.ac dec 1000 1Meg 65Meg
